LAMMPS (2 Jul 2021)
variable TEM    equal 0.09428895
variable number equal 4
variable ofreq	 equal 1000
variable efreq	 equal 1000
variable T      equal 0.1
variable dt     equal 1e-5
variable conc   equal 1

units lj
dimension 3
newton on
boundary p p p

atom_style hybrid bond ellipsoid
atom_modify sort 0 1.0

# Pair interactions require lists of neighbours to be calculated
neighbor 5.0 bin
neigh_modify every 1 delay 0 check yes

read_data ../lmp/1bna.data
Reading data file ...
  orthogonal box = (-800.00000 -800.00000 -800.00000) to (800.00000 800.00000 800.00000)
  reading atoms ...
  24 atoms
  reading velocities ...
  24 velocities
  24 ellipsoids
  scanning bonds ...
  reading bonds ...
  22 bonds
Finding 1-2 1-3 1-4 neighbors ...
     2 = max # of 1-2 neighbors
     2 = max # of 1-3 neighbors
     4 = max # of 1-4 neighbors
     6 = max # of special neighbors

set atom * mass 3.1575
Setting atom values ...
  24 settings made for mass

group all type 1 4
24 atoms in group all

# oxDNA2 bond interactions - FENE backbone
bond_style oxdna2/fene
bond_coeff * 2.0 0.25 0.7564
special_bonds lj 0 1 1
Finding 1-2 1-3 1-4 neighbors ...
     2 = max # of 1-2 neighbors
     2 = max # of 1-3 neighbors
     4 = max # of 1-4 neighbors
     6 = max # of special neighbors

# oxDNA2 pair interactions
pair_style hybrid/overlay oxdna2/excv oxdna2/stk oxdna2/hbond oxdna2/xstk oxdna2/coaxstk oxdna2/dh
pair_coeff * * oxdna2/excv    2.0 0.7 0.675 2.0 0.515 0.5 2.0 0.33 0.32
pair_coeff * * oxdna2/stk     seqav 0.1 1.3523 2.6717 6.0 0.4 0.9 0.32 0.75 1.3 0 0.8 0.9 0 0.95 0.9 0 0.95 2.0 0.65 2.0 0.65
pair_coeff * * oxdna2/hbond   seqav 0.0 8.0 0.4 0.75 0.34 0.7 1.5 0 0.7 1.5 0 0.7 1.5 0 0.7 0.46 3.141592653589793 0.7 4.0 1.5707963267948966 0.45 4.0 1.5707963267948966 0.45
pair_coeff 1 4 oxdna2/hbond   seqav 1.0678 8.0 0.4 0.75 0.34 0.7 1.5 0 0.7 1.5 0 0.7 1.5 0 0.7 0.46 3.141592653589793 0.7 4.0 1.5707963267948966 0.45 4.0 1.5707963267948966 0.45
pair_coeff 2 3 oxdna2/hbond   seqav 1.0678 8.0 0.4 0.75 0.34 0.7 1.5 0 0.7 1.5 0 0.7 1.5 0 0.7 0.46 3.141592653589793 0.7 4.0 1.5707963267948966 0.45 4.0 1.5707963267948966 0.45
pair_coeff * * oxdna2/xstk    47.5 0.575 0.675 0.495 0.655 2.25 0.791592653589793 0.58 1.7 1.0 0.68 1.7 1.0 0.68 1.5 0 0.65 1.7 0.875 0.68 1.7 0.875 0.68
pair_coeff * * oxdna2/coaxstk 58.5 0.4 0.6 0.22 0.58 2.0 2.891592653589793 0.65 1.3 0 0.8 0.9 0 0.95 0.9 0 0.95 40.0 3.116592653589793
pair_coeff * * oxdna2/dh      0.1 1 0.815

fix 1 all nve/dotc/langevin 0.09428895 0.09428895 0.03 457145 angmom 10
timestep 1e-05

#comm_style tiled
#fix 3 all balance 10000 1.1 rcb
#comm_modify cutoff 2.5

#compute mol all chunk/atom molecule
#compute mychunk all vcm/chunk mol
#fix 4 all ave/time 10000 1 10000 c_mychunk[1] c_mychunk[2] c_mychunk[3] file vcm.txt mode vector

dump pos all xyz 1000 1bna-10-1.xyz
dump 2 all custom 1000 1bna-10-1.dat id x y z vx vy vz fx fy fz tqx tqy tqz
compute quat all property/atom quatw quati quatj quatk
dump 3 all custom 1000 1bna-10-1.dat id c_quat[1] c_quat[2] c_quat[3] c_quat[4]

#compute quat all property/atom quatw quati quatj quatk
#dump_modify quat sort id
#dump_modify quat format line "%d  %13.6le  %13.6le  %13.6le  %13.6le"

compute erot all erotate/asphere
compute ekin all ke
compute epot all pe
variable erot equal c_erot
variable ekin equal c_ekin
variable epot equal c_epot
variable etot equal c_erot+c_ekin+c_epot

#dump_modify out sort id
#dump_modify out format line "%d  %13.9f %13.9f %13.9f  %13.9f %13.9f %13.9f  %13.9f %13.9f %13.9f  %13.9f %13.9f %13.9f"

run 500000
  update every 1 steps, delay 0 steps, check yes
Step Temp E_pair E_mol TotEng Press
0            0  -0.97238043   0.35019233   -0.6221881 -5.3023884e-09
Loop time of 30.5707 on 1 procs for 500000 steps with 24 atoms
